8
0 1 C2H6
H                     1.038837333904    -1.135389442137    -0.000000067083
C                     0.000633333904    -0.771892442137    -0.000000067083
H                    -0.519157666096    -1.136816442137     0.898025932917
H                    -0.519157666096    -1.136816442137    -0.898025067083
C                     0.000633333904     0.771449557863    -0.000000067083
H                    -1.037572666096     1.134946557863    -0.000000067083
H                     0.510984333904     1.139674557863    -0.898025067083
H                     0.510984333904     1.139674557863     0.898025932917
